
#======================================================================
# CRYSTAL DATA
#----------------------------------------------------------------------
data_VESTA_phase_1

_chemical_name_common                  'global'
_cell_length_a                         3.506710
_cell_length_b                         3.506760
_cell_length_c                         29.936001
_cell_angle_alpha                      90.000000
_cell_angle_beta                       90.000000
_cell_angle_gamma                      120.000000
_cell_volume                           318.812011
_space_group_name_H-M_alt              'P 1'
_space_group_IT_number                 1

loop_
_space_group_symop_operation_xyz
   'x, y, z'

loop_
   _atom_site_label
   _atom_site_occupancy
   _atom_site_fract_x
   _atom_site_fract_y
   _atom_site_fract_z
   _atom_site_adp_type
   _atom_site_U_iso_or_equiv
   _atom_site_type_symbol
   Li         1.0     0.666670     0.333340     0.062366    Uiso  ? Li
   Li         1.0    -0.000000    -0.000000     0.124733    Uiso  ? Li
   N          1.0     0.666670     0.333340     0.124733    Uiso  ? N
   Li         1.0     0.333340     0.666680     0.124733    Uiso  ? Li
   Li         1.0     0.666670     0.333340     0.187099    Uiso  ? Li
   Li         1.0    -0.000000    -0.000000     0.249465    Uiso  ? Li
   N          1.0     0.666670     0.333340     0.249465    Uiso  ? N
   Li         1.0     0.333340     0.666680     0.249465    Uiso  ? Li
   Li         1.0     0.666670     0.333340     0.311831    Uiso  ? Li
   Li         1.0    -0.000000    -0.000000     0.374198    Uiso  ? Li
   N          1.0     0.666670     0.333340     0.374198    Uiso  ? N
   Li         1.0     0.333340     0.666680     0.374198    Uiso  ? Li
   Li         1.0     0.666670     0.333340     0.436564    Uiso  ? Li
   Li         1.0    -0.000000    -0.000000     0.498930    Uiso  ? Li
   N          1.0     0.666670     0.333340     0.498930    Uiso  ? N
   Li         1.0     0.333340     0.666680     0.498930    Uiso  ? Li
