
#======================================================================
# CRYSTAL DATA
#----------------------------------------------------------------------
data_VESTA_phase_1

_chemical_name_common                  'VESTA_phase_1'
_cell_length_a                         10.306300
_cell_length_b                         10.306700
_cell_length_c                         29.633400
_cell_angle_alpha                      90.000000
_cell_angle_beta                       90.000000
_cell_angle_gamma                      119.999001
_cell_volume                           2726.081903
_space_group_name_H-M_alt              'P 1'
_space_group_IT_number                 1

loop_
_space_group_symop_operation_xyz
   'x, y, z'

loop_
   _atom_site_label
   _atom_site_occupancy
   _atom_site_fract_x
   _atom_site_fract_y
   _atom_site_fract_z
   _atom_site_adp_type
   _atom_site_U_iso_or_equiv
   _atom_site_type_symbol
   C144       1.0     0.599115     0.515186     0.819203    Uiso  ? Li
   Li1        1.0     0.222220     0.111110     0.294070    Uiso  ? Li
   Li2        1.0     0.555560     0.111110     0.294070    Uiso  ? Li
   Li3        1.0     0.888890     0.111110     0.294070    Uiso  ? Li
   Li4        1.0     0.222220     0.444450     0.294070    Uiso  ? Li
   Li5        1.0     0.555560     0.444450     0.294070    Uiso  ? Li
   Li6        1.0     0.888890     0.444450     0.294070    Uiso  ? Li
   Li7        1.0     0.222220     0.777780     0.294070    Uiso  ? Li
   Li8        1.0     0.555560     0.777780     0.294070    Uiso  ? Li
   Li9        1.0     0.888890     0.777780     0.294070    Uiso  ? Li
   Li10       1.0     0.000000     0.000000     0.359510    Uiso  ? Li
   Li11       1.0     0.333340     0.000000     0.359510    Uiso  ? Li
   Li12       1.0     0.666670     0.000000     0.359510    Uiso  ? Li
   Li13       1.0     0.111110     0.222220     0.359510    Uiso  ? Li
   Li14       1.0     0.444440     0.222220     0.359510    Uiso  ? Li
   Li15       1.0     0.777780     0.222220     0.359510    Uiso  ? Li
   Li16       1.0     0.000000     0.333340     0.359510    Uiso  ? Li
   Li17       1.0     0.333340     0.333340     0.359510    Uiso  ? Li
   Li18       1.0     0.666670     0.333340     0.359510    Uiso  ? Li
   Li19       1.0     0.111110     0.555560     0.359510    Uiso  ? Li
   Li20       1.0     0.444440     0.555560     0.359510    Uiso  ? Li
   Li21       1.0     0.777780     0.555560     0.359510    Uiso  ? Li
   Li22       1.0     0.000000     0.666670     0.359510    Uiso  ? Li
   Li23       1.0     0.333340     0.666670     0.359510    Uiso  ? Li
   Li24       1.0     0.666670     0.666670     0.359510    Uiso  ? Li
   Li25       1.0     0.111110     0.888890     0.359510    Uiso  ? Li
   Li26       1.0     0.444440     0.888890     0.359510    Uiso  ? Li
   Li27       1.0     0.777780     0.888890     0.359510    Uiso  ? Li
   Li28       1.0     0.222220     0.111110     0.426110    Uiso  ? Li
   Li29       1.0     0.555560     0.111110     0.426110    Uiso  ? Li
   Li30       1.0     0.888890     0.111110     0.426110    Uiso  ? Li
   Li31       1.0     0.222220     0.444450     0.426110    Uiso  ? Li
   Li32       1.0     0.555560     0.444450     0.426110    Uiso  ? Li
   Li33       1.0     0.888890     0.444450     0.426110    Uiso  ? Li
   Li34       1.0     0.222220     0.777780     0.426110    Uiso  ? Li
   Li35       1.0     0.555560     0.777780     0.426110    Uiso  ? Li
   Li36       1.0     0.888890     0.777780     0.426110    Uiso  ? Li
   Li37       1.0     0.000000     0.000000     0.491890    Uiso  ? Li
   Li38       1.0     0.333340     0.000000     0.491890    Uiso  ? Li
   Li39       1.0     0.666670     0.000000     0.491890    Uiso  ? Li
   Li40       1.0     0.111110     0.222220     0.491890    Uiso  ? Li
   Li41       1.0     0.444440     0.222220     0.491890    Uiso  ? Li
   Li42       1.0     0.777780     0.222220     0.491890    Uiso  ? Li
   Li43       1.0     0.000000     0.333340     0.491890    Uiso  ? Li
   Li44       1.0     0.333340     0.333340     0.491890    Uiso  ? Li
   Li45       1.0     0.666670     0.333340     0.491890    Uiso  ? Li
   Li46       1.0     0.111110     0.555560     0.491890    Uiso  ? Li
   Li47       1.0     0.444440     0.555560     0.491890    Uiso  ? Li
   Li48       1.0     0.777780     0.555560     0.491890    Uiso  ? Li
   Li49       1.0     0.000000     0.666670     0.491890    Uiso  ? Li
   Li50       1.0     0.333340     0.666670     0.491890    Uiso  ? Li
   Li51       1.0     0.666670     0.666670     0.491890    Uiso  ? Li
   Li52       1.0     0.111110     0.888890     0.491890    Uiso  ? Li
   Li53       1.0     0.444440     0.888890     0.491890    Uiso  ? Li
   Li54       1.0     0.777780     0.888890     0.491890    Uiso  ? Li
   Li55       1.0     0.222220     0.111110     0.558220    Uiso  ? Li
   Li56       1.0     0.555560     0.111110     0.558220    Uiso  ? Li
   Li57       1.0     0.888890     0.111110     0.558220    Uiso  ? Li
   Li58       1.0     0.222220     0.444450     0.558220    Uiso  ? Li
   Li59       1.0     0.555560     0.444450     0.558220    Uiso  ? Li
   Li60       1.0     0.888890     0.444450     0.558220    Uiso  ? Li
   Li61       1.0     0.222220     0.777780     0.558220    Uiso  ? Li
   Li62       1.0     0.555560     0.777780     0.558220    Uiso  ? Li
   Li63       1.0     0.888890     0.777780     0.558220    Uiso  ? Li
   Li64       1.0     0.000000     0.000000     0.624230    Uiso  ? Li
   Li65       1.0     0.333330     0.000000     0.624230    Uiso  ? Li
   Li66       1.0     0.666670     0.000000     0.624230    Uiso  ? Li
   Li67       1.0     0.111110     0.222220     0.624230    Uiso  ? Li
   Li68       1.0     0.444440     0.222220     0.624230    Uiso  ? Li
   Li69       1.0     0.777780     0.222220     0.624230    Uiso  ? Li
   Li70       1.0     0.000000     0.333340     0.624230    Uiso  ? Li
   Li71       1.0     0.333330     0.333340     0.624230    Uiso  ? Li
   Li72       1.0     0.666670     0.333340     0.624230    Uiso  ? Li
   Li73       1.0     0.111110     0.555560     0.624230    Uiso  ? Li
   Li74       1.0     0.444440     0.555560     0.624230    Uiso  ? Li
   Li75       1.0     0.777780     0.555560     0.624230    Uiso  ? Li
   Li76       1.0     0.000000     0.666670     0.624230    Uiso  ? Li
   Li77       1.0     0.333330     0.666670     0.624230    Uiso  ? Li
   Li78       1.0     0.666670     0.666670     0.624230    Uiso  ? Li
   Li79       1.0     0.111110     0.888890     0.624230    Uiso  ? Li
   Li80       1.0     0.444440     0.888890     0.624230    Uiso  ? Li
   Li81       1.0     0.777780     0.888890     0.624230    Uiso  ? Li
   Li82       1.0     0.222220     0.111110     0.690350    Uiso  ? Li
   Li83       1.0     0.555560     0.111110     0.690350    Uiso  ? Li
   Li84       1.0     0.888890     0.111110     0.690350    Uiso  ? Li
   Li85       1.0     0.222220     0.444450     0.690350    Uiso  ? Li
   Li86       1.0     0.555560     0.444450     0.690350    Uiso  ? Li
   Li87       1.0     0.888890     0.444450     0.690350    Uiso  ? Li
   Li88       1.0     0.222220     0.777780     0.690350    Uiso  ? Li
   Li89       1.0     0.555560     0.777780     0.690350    Uiso  ? Li
   Li90       1.0     0.888890     0.777780     0.690350    Uiso  ? Li
   Li91       1.0     0.000000     0.000000     0.762500    Uiso  ? Li
   Li92       1.0     0.333340     0.000000     0.762500    Uiso  ? Li
   Li93       1.0     0.666670     0.000000     0.762500    Uiso  ? Li
   Li94       1.0     0.111110     0.222220     0.762500    Uiso  ? Li
   Li95       1.0     0.444440     0.222220     0.762500    Uiso  ? Li
   Li96       1.0     0.777780     0.222220     0.762500    Uiso  ? Li
   Li97       1.0     0.000000     0.333340     0.762500    Uiso  ? Li
   Li98       1.0     0.333340     0.333340     0.762500    Uiso  ? Li
   Li99       1.0     0.666670     0.333340     0.762500    Uiso  ? Li
   Li100      1.0     0.111110     0.555560     0.762500    Uiso  ? Li
   Li101      1.0     0.444440     0.555560     0.762500    Uiso  ? Li
   Li102      1.0     0.777780     0.555560     0.762500    Uiso  ? Li
   Li103      1.0     0.000000     0.666670     0.762500    Uiso  ? Li
   Li104      1.0     0.333340     0.666670     0.762500    Uiso  ? Li
   Li105      1.0     0.666670     0.666670     0.762500    Uiso  ? Li
   Li106      1.0     0.111110     0.888890     0.762500    Uiso  ? Li
   Li107      1.0     0.444440     0.888890     0.762500    Uiso  ? Li
   Li108      1.0     0.777780     0.888890     0.762500    Uiso  ? Li
   N1         1.0     0.222220     0.111110     0.358990    Uiso  ? N
   N2         1.0     0.555560     0.111110     0.358990    Uiso  ? N
   N3         1.0     0.888890     0.111110     0.358990    Uiso  ? N
   N4         1.0     0.222220     0.444450     0.358990    Uiso  ? N
   N5         1.0     0.555560     0.444450     0.358990    Uiso  ? N
   N6         1.0     0.888890     0.444450     0.358990    Uiso  ? N
   N7         1.0     0.222220     0.777780     0.358990    Uiso  ? N
   N8         1.0     0.555560     0.777780     0.358990    Uiso  ? N
   N9         1.0     0.888890     0.777780     0.358990    Uiso  ? N
   N10        1.0     0.222220     0.111110     0.491410    Uiso  ? N
   N11        1.0     0.555560     0.111110     0.491410    Uiso  ? N
   N12        1.0     0.888890     0.111110     0.491410    Uiso  ? N
   N13        1.0     0.222220     0.444450     0.491410    Uiso  ? N
   N14        1.0     0.555560     0.444450     0.491410    Uiso  ? N
   N15        1.0     0.888890     0.444450     0.491410    Uiso  ? N
   N16        1.0     0.222220     0.777780     0.491410    Uiso  ? N
   N17        1.0     0.555560     0.777780     0.491410    Uiso  ? N
   N18        1.0     0.888890     0.777780     0.491410    Uiso  ? N
   N19        1.0     0.222220     0.111110     0.623540    Uiso  ? N
   N20        1.0     0.555560     0.111110     0.623540    Uiso  ? N
   N21        1.0     0.888890     0.111110     0.623540    Uiso  ? N
   N22        1.0     0.222220     0.444450     0.623540    Uiso  ? N
   N23        1.0     0.555560     0.444450     0.623540    Uiso  ? N
   N24        1.0     0.888890     0.444450     0.623540    Uiso  ? N
   N25        1.0     0.222220     0.777780     0.623540    Uiso  ? N
   N26        1.0     0.555560     0.777780     0.623540    Uiso  ? N
   N27        1.0     0.888890     0.777780     0.623540    Uiso  ? N
   N28        1.0     0.222220     0.111110     0.754950    Uiso  ? N
   N29        1.0     0.555560     0.111110     0.754950    Uiso  ? N
   N30        1.0     0.888890     0.111110     0.754950    Uiso  ? N
   N31        1.0     0.222220     0.444450     0.754950    Uiso  ? N
   N32        1.0     0.555560     0.444450     0.754950    Uiso  ? N
   N33        1.0     0.888890     0.444450     0.754950    Uiso  ? N
   N34        1.0     0.222220     0.777780     0.754950    Uiso  ? N
   N35        1.0     0.555560     0.777780     0.754950    Uiso  ? N
   N36        1.0     0.888890     0.777780     0.754950    Uiso  ? N
