
#======================================================================
# CRYSTAL DATA
#----------------------------------------------------------------------
data_VESTA_phase_1

_chemical_name_common                  'global'
_cell_length_a                         7.316720
_cell_length_b                         11.901200
_cell_length_c                         30.459499
_cell_angle_alpha                      90.000000
_cell_angle_beta                       90.000000
_cell_angle_gamma                      90.000000
_cell_volume                           2652.344680
_space_group_name_H-M_alt              'P 1'
_space_group_IT_number                 1

loop_
_space_group_symop_operation_xyz
   'x, y, z'

loop_
   _atom_site_label
   _atom_site_occupancy
   _atom_site_fract_x
   _atom_site_fract_y
   _atom_site_fract_z
   _atom_site_adp_type
   _atom_site_U_iso_or_equiv
   _atom_site_type_symbol
   Li         1.0    -0.000000    -0.000000     0.056394    Uiso  ? Li
   Li         1.0     0.500000    -0.000000     0.056394    Uiso  ? Li
   N          1.0     0.000000     0.166665     0.056394    Uiso  ? N
   Li         1.0     0.250000     0.166665     0.056394    Uiso  ? Li
   N          1.0     0.500000     0.166665     0.056394    Uiso  ? N
   Li         1.0     0.750000     0.166665     0.056394    Uiso  ? Li
   Li         1.0     0.000000     0.333330     0.056394    Uiso  ? Li
   Li         1.0     0.500000     0.333330     0.056394    Uiso  ? Li
   Li         1.0     0.000000     0.500000     0.056394    Uiso  ? Li
   Li         1.0     0.500000     0.500000     0.056394    Uiso  ? Li
   N          1.0     0.000000     0.666665     0.056394    Uiso  ? N
   Li         1.0     0.250000     0.666665     0.056394    Uiso  ? Li
   N          1.0     0.500000     0.666665     0.056394    Uiso  ? N
   Li         1.0     0.750000     0.666665     0.056394    Uiso  ? Li
   Li         1.0     0.000000     0.833330     0.056394    Uiso  ? Li
   Li         1.0     0.500000     0.833330     0.056394    Uiso  ? Li
   Li         1.0     0.000000     0.083330     0.112787    Uiso  ? Li
   Li         1.0     0.500000     0.083330     0.112787    Uiso  ? Li
   Li         1.0     0.000000     0.250000     0.112787    Uiso  ? Li
   Li         1.0     0.500000     0.250000     0.112787    Uiso  ? Li
   N          1.0     0.000000     0.416665     0.112787    Uiso  ? N
   Li         1.0     0.250000     0.416665     0.112787    Uiso  ? Li
   N          1.0     0.500000     0.416665     0.112787    Uiso  ? N
   Li         1.0     0.750000     0.416665     0.112787    Uiso  ? Li
   Li         1.0     0.000000     0.583330     0.112787    Uiso  ? Li
   Li         1.0     0.500000     0.583330     0.112787    Uiso  ? Li
   Li         1.0     0.000000     0.750000     0.112787    Uiso  ? Li
   Li         1.0     0.500000     0.750000     0.112787    Uiso  ? Li
   N          1.0     0.000000     0.916665     0.112787    Uiso  ? N
   Li         1.0     0.250000     0.916665     0.112787    Uiso  ? Li
   N          1.0     0.500000     0.916665     0.112787    Uiso  ? N
   Li         1.0     0.750000     0.916665     0.112787    Uiso  ? Li
   Li         1.0    -0.000000    -0.000000     0.169181    Uiso  ? Li
   Li         1.0     0.500000    -0.000000     0.169181    Uiso  ? Li
   N          1.0     0.000000     0.166665     0.169181    Uiso  ? N
   Li         1.0     0.250000     0.166665     0.169181    Uiso  ? Li
   N          1.0     0.500000     0.166665     0.169181    Uiso  ? N
   Li         1.0     0.750000     0.166665     0.169181    Uiso  ? Li
   Li         1.0     0.000000     0.333330     0.169181    Uiso  ? Li
   Li         1.0     0.500000     0.333330     0.169181    Uiso  ? Li
   Li         1.0     0.000000     0.500000     0.169181    Uiso  ? Li
   Li         1.0     0.500000     0.500000     0.169181    Uiso  ? Li
   N          1.0     0.000000     0.666665     0.169181    Uiso  ? N
   Li         1.0     0.250000     0.666665     0.169181    Uiso  ? Li
   N          1.0     0.500000     0.666665     0.169181    Uiso  ? N
   Li         1.0     0.750000     0.666665     0.169181    Uiso  ? Li
   Li         1.0     0.000000     0.833330     0.169181    Uiso  ? Li
   Li         1.0     0.500000     0.833330     0.169181    Uiso  ? Li
   Li         1.0     0.000000     0.083330     0.225575    Uiso  ? Li
   Li         1.0     0.500000     0.083330     0.225575    Uiso  ? Li
   Li         1.0     0.000000     0.250000     0.225575    Uiso  ? Li
   Li         1.0     0.500000     0.250000     0.225575    Uiso  ? Li
   N          1.0     0.000000     0.416665     0.225575    Uiso  ? N
   Li         1.0     0.250000     0.416665     0.225575    Uiso  ? Li
   N          1.0     0.500000     0.416665     0.225575    Uiso  ? N
   Li         1.0     0.750000     0.416665     0.225575    Uiso  ? Li
   Li         1.0     0.000000     0.583330     0.225575    Uiso  ? Li
   Li         1.0     0.500000     0.583330     0.225575    Uiso  ? Li
   Li         1.0     0.000000     0.750000     0.225575    Uiso  ? Li
   Li         1.0     0.500000     0.750000     0.225575    Uiso  ? Li
   N          1.0     0.000000     0.916665     0.225575    Uiso  ? N
   Li         1.0     0.250000     0.916665     0.225575    Uiso  ? Li
   N          1.0     0.500000     0.916665     0.225575    Uiso  ? N
   Li         1.0     0.750000     0.916665     0.225575    Uiso  ? Li
   Li         1.0    -0.000000    -0.000000     0.281968    Uiso  ? Li
   Li         1.0     0.500000    -0.000000     0.281968    Uiso  ? Li
   N          1.0     0.000000     0.166665     0.281968    Uiso  ? N
   Li         1.0     0.250000     0.166665     0.281968    Uiso  ? Li
   N          1.0     0.500000     0.166665     0.281968    Uiso  ? N
   Li         1.0     0.750000     0.166665     0.281968    Uiso  ? Li
   Li         1.0     0.000000     0.333330     0.281968    Uiso  ? Li
   Li         1.0     0.500000     0.333330     0.281968    Uiso  ? Li
   Li         1.0     0.000000     0.500000     0.281968    Uiso  ? Li
   Li         1.0     0.500000     0.500000     0.281968    Uiso  ? Li
   N          1.0     0.000000     0.666665     0.281968    Uiso  ? N
   Li         1.0     0.250000     0.666665     0.281968    Uiso  ? Li
   N          1.0     0.500000     0.666665     0.281968    Uiso  ? N
   Li         1.0     0.750000     0.666665     0.281968    Uiso  ? Li
   Li         1.0     0.000000     0.833330     0.281968    Uiso  ? Li
   Li         1.0     0.500000     0.833330     0.281968    Uiso  ? Li
   Li         1.0     0.000000     0.083330     0.338362    Uiso  ? Li
   Li         1.0     0.500000     0.083330     0.338362    Uiso  ? Li
   Li         1.0     0.000000     0.250000     0.338362    Uiso  ? Li
   Li         1.0     0.500000     0.250000     0.338362    Uiso  ? Li
   N          1.0     0.000000     0.416665     0.338362    Uiso  ? N
   Li         1.0     0.250000     0.416665     0.338362    Uiso  ? Li
   N          1.0     0.500000     0.416665     0.338362    Uiso  ? N
   Li         1.0     0.750000     0.416665     0.338362    Uiso  ? Li
   Li         1.0     0.000000     0.583330     0.338362    Uiso  ? Li
   Li         1.0     0.500000     0.583330     0.338362    Uiso  ? Li
   Li         1.0     0.000000     0.750000     0.338362    Uiso  ? Li
   Li         1.0     0.500000     0.750000     0.338362    Uiso  ? Li
   N          1.0     0.000000     0.916665     0.338362    Uiso  ? N
   Li         1.0     0.250000     0.916665     0.338362    Uiso  ? Li
   N          1.0     0.500000     0.916665     0.338362    Uiso  ? N
   Li         1.0     0.750000     0.916665     0.338362    Uiso  ? Li
   Li         1.0     0.000000     0.000000     0.394756    Uiso  ? Li
   Li         1.0     0.500000    -0.000000     0.394756    Uiso  ? Li
   N          1.0     0.000000     0.166665     0.394756    Uiso  ? N
   Li         1.0     0.250000     0.166665     0.394756    Uiso  ? Li
   N          1.0     0.500000     0.166665     0.394756    Uiso  ? N
   Li         1.0     0.750000     0.166665     0.394756    Uiso  ? Li
   Li         1.0     0.000000     0.333330     0.394756    Uiso  ? Li
   Li         1.0     0.500000     0.333330     0.394756    Uiso  ? Li
   Li         1.0     0.000000     0.500000     0.394756    Uiso  ? Li
   Li         1.0     0.500000     0.500000     0.394756    Uiso  ? Li
   N          1.0     0.000000     0.666665     0.394756    Uiso  ? N
   Li         1.0     0.250000     0.666665     0.394756    Uiso  ? Li
   N          1.0     0.500000     0.666665     0.394756    Uiso  ? N
   Li         1.0     0.750000     0.666665     0.394756    Uiso  ? Li
   Li         1.0     0.000000     0.833330     0.394756    Uiso  ? Li
   Li         1.0     0.500000     0.833330     0.394756    Uiso  ? Li
   Li         1.0     0.000000     0.083330     0.451149    Uiso  ? Li
   Li         1.0     0.500000     0.083330     0.451149    Uiso  ? Li
   Li         1.0     0.000000     0.250000     0.451149    Uiso  ? Li
   Li         1.0     0.500000     0.250000     0.451149    Uiso  ? Li
   N          1.0     0.000000     0.416665     0.451149    Uiso  ? N
   Li         1.0     0.250000     0.416665     0.451149    Uiso  ? Li
   N          1.0     0.500000     0.416665     0.451149    Uiso  ? N
   Li         1.0     0.750000     0.416665     0.451149    Uiso  ? Li
   Li         1.0     0.000000     0.583330     0.451149    Uiso  ? Li
   Li         1.0     0.500000     0.583330     0.451149    Uiso  ? Li
   Li         1.0     0.000000     0.750000     0.451149    Uiso  ? Li
   Li         1.0     0.500000     0.750000     0.451149    Uiso  ? Li
   N          1.0     0.000000     0.916665     0.451149    Uiso  ? N
   Li         1.0     0.250000     0.916665     0.451149    Uiso  ? Li
   N          1.0     0.500000     0.916665     0.451149    Uiso  ? N
   Li         1.0     0.750000     0.916665     0.451149    Uiso  ? Li
   Li         1.0    -0.000000    -0.000000     0.507543    Uiso  ? Li
   Li         1.0     0.500000    -0.000000     0.507543    Uiso  ? Li
   N          1.0     0.000000     0.166665     0.507543    Uiso  ? N
   Li         1.0     0.250000     0.166665     0.507543    Uiso  ? Li
   N          1.0     0.500000     0.166665     0.507543    Uiso  ? N
   Li         1.0     0.750000     0.166665     0.507543    Uiso  ? Li
   Li         1.0     0.000000     0.333330     0.507543    Uiso  ? Li
   Li         1.0     0.500000     0.333330     0.507543    Uiso  ? Li
   Li         1.0     0.000000     0.500000     0.507543    Uiso  ? Li
   Li         1.0     0.500000     0.500000     0.507543    Uiso  ? Li
   N          1.0     0.000000     0.666665     0.507543    Uiso  ? N
   Li         1.0     0.250000     0.666665     0.507543    Uiso  ? Li
   N          1.0     0.500000     0.666665     0.507543    Uiso  ? N
   Li         1.0     0.750000     0.666665     0.507543    Uiso  ? Li
   Li         1.0     0.000000     0.833330     0.507543    Uiso  ? Li
   Li         1.0     0.500000     0.833330     0.507543    Uiso  ? Li
