
#======================================================================
# CRYSTAL DATA
#----------------------------------------------------------------------
data_VESTA_phase_1

_chemical_name_common                  'Li3N_001_slab_opt'
_cell_length_a                         7.013470
_cell_length_b                         6.073843
_cell_length_c                         29.936001
_cell_angle_alpha                      90.000000
_cell_angle_beta                       90.000000
_cell_angle_gamma                      90.000000
_cell_volume                           1275.235219
_space_group_name_H-M_alt              'P 1'
_space_group_IT_number                 1

loop_
_space_group_symop_operation_xyz
   'x, y, z'

loop_
   _atom_site_label
   _atom_site_occupancy
   _atom_site_fract_x
   _atom_site_fract_y
   _atom_site_fract_z
   _atom_site_adp_type
   _atom_site_U_iso_or_equiv
   _atom_site_type_symbol
   Li13       1.0     0.250003     0.833385     0.000000    Uiso  ? Li
   Li14       1.0     0.000000     0.333385     0.000000    Uiso  ? Li
   Li15       1.0     0.500003     0.333385     0.000000    Uiso  ? Li
   Li16       1.0     0.750003     0.833385     0.000000    Uiso  ? Li
   Li17       1.0     0.250003     0.500055     0.065010    Uiso  ? Li
   Li18       1.0     0.000000     0.000055     0.065010    Uiso  ? Li
   Li19       1.0     0.500003     0.000055     0.065010    Uiso  ? Li
   Li20       1.0     0.750003     0.500055     0.065010    Uiso  ? Li
   Li21       1.0     0.250000     0.166720     0.065010    Uiso  ? Li
   Li22       1.0     0.000000     0.666720     0.065010    Uiso  ? Li
   Li23       1.0     0.500000     0.666720     0.065010    Uiso  ? Li
   Li24       1.0     0.750000     0.166720     0.065010    Uiso  ? Li
   Li25       1.0     0.250003     0.833385     0.130960    Uiso  ? Li
   Li26       1.0     0.000000     0.333385     0.130960    Uiso  ? Li
   Li27       1.0     0.500003     0.333385     0.130960    Uiso  ? Li
   Li28       1.0     0.750003     0.833385     0.130960    Uiso  ? Li
   Li29       1.0     0.250003     0.500055     0.196680    Uiso  ? Li
   Li30       1.0     0.000000     0.000055     0.196680    Uiso  ? Li
   Li31       1.0     0.500003     0.000055     0.196680    Uiso  ? Li
   Li32       1.0     0.750003     0.500055     0.196680    Uiso  ? Li
   Li33       1.0     0.250000     0.166720     0.196680    Uiso  ? Li
   Li34       1.0     0.000000     0.666720     0.196680    Uiso  ? Li
   Li35       1.0     0.500000     0.666720     0.196680    Uiso  ? Li
   Li36       1.0     0.750000     0.166720     0.196680    Uiso  ? Li
   Li37       1.0     0.250003     0.833385     0.262540    Uiso  ? Li
   Li38       1.0     0.000000     0.333385     0.262540    Uiso  ? Li
   Li39       1.0     0.500003     0.333385     0.262540    Uiso  ? Li
   Li40       1.0     0.750003     0.833385     0.262540    Uiso  ? Li
   Li41       1.0     0.250005     0.500060     0.333370    Uiso  ? Li
   Li42       1.0     0.000000     0.000060     0.333370    Uiso  ? Li
   Li43       1.0     0.500005     0.000060     0.333370    Uiso  ? Li
   Li44       1.0     0.750005     0.500060     0.333370    Uiso  ? Li
   Li45       1.0     0.250003     0.166725     0.333370    Uiso  ? Li
   Li46       1.0     0.000000     0.666725     0.333370    Uiso  ? Li
   Li47       1.0     0.500003     0.666725     0.333370    Uiso  ? Li
   Li48       1.0     0.750003     0.166725     0.333370    Uiso  ? Li
   N5         1.0     0.250003     0.833395     0.064440    Uiso  ? N
   N6         1.0     0.000000     0.333395     0.064440    Uiso  ? N
   N7         1.0     0.500003     0.333395     0.064440    Uiso  ? N
   N8         1.0     0.750003     0.833395     0.064440    Uiso  ? N
   N9         1.0     0.250003     0.833395     0.195890    Uiso  ? N
   N10        1.0     0.000000     0.333395     0.195890    Uiso  ? N
   N11        1.0     0.500003     0.333395     0.195890    Uiso  ? N
   N12        1.0     0.750003     0.833395     0.195890    Uiso  ? N
   N13        1.0     0.250003     0.833395     0.326790    Uiso  ? N
   N14        1.0     0.000000     0.333395     0.326790    Uiso  ? N
   N15        1.0     0.500003     0.333395     0.326790    Uiso  ? N
   N16        1.0     0.750003     0.833395     0.326790    Uiso  ? N
