
#======================================================================
# CRYSTAL DATA
#----------------------------------------------------------------------
data_VESTA_phase_1

_chemical_name_common                  'image0'
_cell_length_a                         6.871100
_cell_length_b                         7.316720
_cell_length_c                         28.925800
_cell_angle_alpha                      90.000000
_cell_angle_beta                       90.000000
_cell_angle_gamma                      90.000000
_cell_volume                           1454.213212
_space_group_name_H-M_alt              'P 1'
_space_group_IT_number                 1

loop_
_space_group_symop_operation_xyz
   'x, y, z'

loop_
   _atom_site_label
   _atom_site_occupancy
   _atom_site_fract_x
   _atom_site_fract_y
   _atom_site_fract_z
   _atom_site_adp_type
   _atom_site_U_iso_or_equiv
   _atom_site_type_symbol
   Li1        1.0     0.499960     0.000000     0.228130    Uiso  ? Li
   Li2        1.0     0.999960     0.000000     0.228150    Uiso  ? Li
   Li3        1.0     0.499960     0.500000     0.228130    Uiso  ? Li
   Li4        1.0     0.999960     0.500000     0.228150    Uiso  ? Li
   Li5        1.0     0.250060     0.250000     0.262180    Uiso  ? Li
   Li6        1.0     0.749860     0.250000     0.262180    Uiso  ? Li
   Li7        1.0     0.250060     0.750000     0.262180    Uiso  ? Li
   Li8        1.0     0.749860     0.750000     0.262180    Uiso  ? Li
   Li9        1.0     0.499960     0.000000     0.301420    Uiso  ? Li
   Li10       1.0     0.999960     0.000000     0.301400    Uiso  ? Li
   Li11       1.0     0.499960     0.500000     0.301420    Uiso  ? Li
   Li12       1.0     0.999960     0.500000     0.301400    Uiso  ? Li
   Li13       1.0     0.249960     0.000000     0.342260    Uiso  ? Li
   Li14       1.0     0.749960     0.000000     0.342260    Uiso  ? Li
   Li15       1.0     0.249960     0.500000     0.342260    Uiso  ? Li
   Li16       1.0     0.749960     0.500000     0.342260    Uiso  ? Li
   Li17       1.0     0.499960     0.250000     0.378920    Uiso  ? Li
   Li18       1.0     0.999960     0.250000     0.378930    Uiso  ? Li
   Li19       1.0     0.499960     0.750000     0.378920    Uiso  ? Li
   Li20       1.0     0.999960     0.750000     0.378930    Uiso  ? Li
   Li21       1.0     0.249970     0.000000     0.415100    Uiso  ? Li
   Li22       1.0     0.749960     0.000000     0.415100    Uiso  ? Li
   Li23       1.0     0.249970     0.500000     0.415100    Uiso  ? Li
   Li24       1.0     0.749960     0.500000     0.415100    Uiso  ? Li
   Li25       1.0     0.499970     0.000000     0.455660    Uiso  ? Li
   Li26       1.0     0.999970     0.000000     0.455680    Uiso  ? Li
   Li27       1.0     0.499970     0.500000     0.455660    Uiso  ? Li
   Li28       1.0     0.999970     0.500000     0.455680    Uiso  ? Li
   Li29       1.0     0.250100     0.250000     0.492100    Uiso  ? Li
   Li30       1.0     0.749840     0.250000     0.492100    Uiso  ? Li
   Li31       1.0     0.250100     0.750000     0.492100    Uiso  ? Li
   Li32       1.0     0.749840     0.750000     0.492100    Uiso  ? Li
   Li33       1.0     0.499970     0.000000     0.528440    Uiso  ? Li
   Li34       1.0     0.999970     0.000000     0.528430    Uiso  ? Li
   Li35       1.0     0.499970     0.500000     0.528440    Uiso  ? Li
   Li36       1.0     0.999970     0.500000     0.528430    Uiso  ? Li
   Li37       1.0     0.250113    -0.040090     0.568956    Uiso  ? Li
   Li38       1.0     0.750157     0.006931     0.569550    Uiso  ? Li
   Li39       1.0     0.250144     0.524118     0.572151    Uiso  ? Li
   Li40       1.0     0.750137     0.521190     0.570511    Uiso  ? Li
   Li41       1.0     0.456522     0.238718     0.595929    Uiso  ? Li
   Li42       1.0     1.044033     0.238479     0.596060    Uiso  ? Li
   Li43       1.0     0.514100     0.738625     0.609310    Uiso  ? Li
   Li44       1.0     0.986178     0.738512     0.609340    Uiso  ? Li
   Li45       1.0     0.250294    -0.033693     0.643424    Uiso  ? Li
   Li46       1.0     0.750471    -0.023906     0.642909    Uiso  ? Li
   Li47       1.0     0.250634     0.476411     0.645789    Uiso  ? Li
   Li48       1.0     0.750711     0.364272     0.631521    Uiso  ? Li
   Li49       1.0     0.498764     0.079376     0.678234    Uiso  ? Li
   Li50       1.0     1.001956     0.078860     0.678337    Uiso  ? Li
   Li51       1.0     0.528312     0.525786     0.684045    Uiso  ? Li
   Li52       1.0     0.972638     0.525925     0.684007    Uiso  ? Li
   Li53       1.0     0.250716     0.273379     0.724312    Uiso  ? Li
   Li54       1.0     0.750276     0.287521     0.739408    Uiso  ? Li
   Li55       1.0     0.251086     0.774923     0.716050    Uiso  ? Li
   Li56       1.0     0.750404     0.793570     0.721806    Uiso  ? Li
   Li57       1.0     1.006175     0.009936     0.752425    Uiso  ? Li
   Li58       1.0     0.494693     0.010224     0.752410    Uiso  ? Li
   Li59       1.0     1.040109     0.533457     0.759694    Uiso  ? Li
   Li60       1.0     0.461550     0.533218     0.759855    Uiso  ? Li
   Li61       1.0     0.750736     0.639753     0.805229    Uiso  ? Li
   N1         1.0     0.250230     0.000000     0.265090    Uiso  ? N
   N2         1.0     0.749680     0.000000     0.265090    Uiso  ? N
   N3         1.0     0.250230     0.500000     0.265090    Uiso  ? N
   N4         1.0     0.749680     0.500000     0.265090    Uiso  ? N
   N5         1.0     0.499960     0.000000     0.378770    Uiso  ? N
   N6         1.0     0.999960     0.000000     0.378780    Uiso  ? N
   N7         1.0     0.499960     0.500000     0.378770    Uiso  ? N
   N8         1.0     0.999960     0.500000     0.378780    Uiso  ? N
   N9         1.0     0.250240     0.000000     0.492120    Uiso  ? N
   N10        1.0     0.749690     0.000000     0.492120    Uiso  ? N
   N11        1.0     0.250240     0.500000     0.492120    Uiso  ? N
   N12        1.0     0.749690     0.500000     0.492120    Uiso  ? N
   N13        1.0     0.499782    -0.008476     0.604366    Uiso  ? N
   N14        1.0     1.000563    -0.008562     0.604345    Uiso  ? N
   N15        1.0     0.503583     0.484233     0.606473    Uiso  ? N
   N16        1.0     0.997640     0.484232     0.606504    Uiso  ? N
   N17        1.0     0.250680     0.026012     0.714261    Uiso  ? N
   N18        1.0     0.749997     0.051320     0.713689    Uiso  ? N
   N19        1.0     0.251228     0.521446     0.714763    Uiso  ? N
   N20        1.0     0.750217     0.549440     0.743032    Uiso  ? N
