
#======================================================================
# CRYSTAL DATA
#----------------------------------------------------------------------
data_VESTA_phase_1

_chemical_name_common                  'image0'
_cell_length_a                         7.013420
_cell_length_b                         7.013520
_cell_length_c                         29.936001
_cell_angle_alpha                      90.000000
_cell_angle_beta                       90.000000
_cell_angle_gamma                      120.000000
_cell_volume                           1275.235203
_space_group_name_H-M_alt              'P 1'
_space_group_IT_number                 1

loop_
_space_group_symop_operation_xyz
   'x, y, z'

loop_
   _atom_site_label
   _atom_site_occupancy
   _atom_site_fract_x
   _atom_site_fract_y
   _atom_site_fract_z
   _atom_site_adp_type
   _atom_site_U_iso_or_equiv
   _atom_site_type_symbol
   Li1        1.0     0.333320     0.166685     0.051110    Uiso  ? Li
   Li1_1      1.0     0.333320     0.666685     0.051110    Uiso  ? Li
   Li1_2      1.0     0.833320     0.166685     0.051110    Uiso  ? Li
   Li1_3      1.0     0.833320     0.666685     0.051110    Uiso  ? Li
   Li10       1.0     0.333310     0.166695     0.443990    Uiso  ? Li
   Li10_1     1.0     0.333310     0.666695     0.443990    Uiso  ? Li
   Li10_2     1.0     0.833310     0.166695     0.443990    Uiso  ? Li
   Li10_3     1.0     0.833310     0.666695     0.443990    Uiso  ? Li
   Li11       1.0     0.499975     0.000035     0.514820    Uiso  ? Li
   Li11_1     1.0     0.499975     0.500035     0.514820    Uiso  ? Li
   Li11_2     1.0     0.999975     0.000035     0.514820    Uiso  ? Li
   Li11_3     1.0     0.999975     0.500035     0.514820    Uiso  ? Li
   Li12       1.0     0.166640     0.333365     0.514820    Uiso  ? Li
   Li12_1     1.0     0.166640     0.833365     0.514820    Uiso  ? Li
   Li12_2     1.0     0.666640     0.333365     0.514820    Uiso  ? Li
   Li12_3     1.0     0.666640     0.833365     0.514820    Uiso  ? Li
   Li2        1.0     0.499980     0.000030     0.115750    Uiso  ? Li
   Li2_1      1.0     0.499980     0.500030     0.115750    Uiso  ? Li
   Li2_2      1.0     0.999980     0.000030     0.115750    Uiso  ? Li
   Li2_3      1.0     0.999980     0.500030     0.115750    Uiso  ? Li
   Li3        1.0     0.166645     0.333360     0.115750    Uiso  ? Li
   Li3_1      1.0     0.166645     0.833360     0.115750    Uiso  ? Li
   Li3_2      1.0     0.666645     0.333360     0.115750    Uiso  ? Li
   Li3_3      1.0     0.666645     0.833360     0.115750    Uiso  ? Li
   Li4        1.0     0.333310     0.166695     0.181450    Uiso  ? Li
   Li4_1      1.0     0.333310     0.666695     0.181450    Uiso  ? Li
   Li4_2      1.0     0.833310     0.166695     0.181450    Uiso  ? Li
   Li4_3      1.0     0.833310     0.666695     0.181450    Uiso  ? Li
   Li5        1.0     0.499975     0.000030     0.246460    Uiso  ? Li
   Li5_1      1.0     0.499975     0.500030     0.246460    Uiso  ? Li
   Li5_2      1.0     0.999975     0.000030     0.246460    Uiso  ? Li
   Li5_3      1.0     0.999975     0.500030     0.246460    Uiso  ? Li
   Li6        1.0     0.166640     0.333360     0.246460    Uiso  ? Li
   Li6_1      1.0     0.166640     0.833360     0.246460    Uiso  ? Li
   Li6_2      1.0     0.666640     0.333360     0.246460    Uiso  ? Li
   Li6_3      1.0     0.666640     0.833360     0.246460    Uiso  ? Li
   Li7        1.0     0.333310     0.166695     0.312410    Uiso  ? Li
   Li7_1      1.0     0.333310     0.666695     0.312410    Uiso  ? Li
   Li7_2      1.0     0.833310     0.166695     0.312410    Uiso  ? Li
   Li7_3      1.0     0.833310     0.666695     0.312410    Uiso  ? Li
   Li8        1.0     0.499975     0.000030     0.378130    Uiso  ? Li
   Li8_1      1.0     0.499975     0.500030     0.378130    Uiso  ? Li
   Li8_2      1.0     0.999975     0.000030     0.378130    Uiso  ? Li
   Li8_3      1.0     0.999975     0.500030     0.378130    Uiso  ? Li
   Li9        1.0     0.166640     0.333360     0.378130    Uiso  ? Li
   Li9_1      1.0     0.166640     0.833360     0.378130    Uiso  ? Li
   Li9_2      1.0     0.666640     0.333360     0.378130    Uiso  ? Li
   Li9_3      1.0     0.666640     0.833360     0.378130    Uiso  ? Li
   N1         1.0     0.333310     0.166695     0.114880    Uiso  ? N
   N1_1       1.0     0.333310     0.666695     0.114880    Uiso  ? N
   N1_2       1.0     0.833310     0.166695     0.114880    Uiso  ? N
   N1_3       1.0     0.833310     0.666695     0.114880    Uiso  ? N
   N2         1.0     0.333305     0.166700     0.245890    Uiso  ? N
   N2_1       1.0     0.333305     0.666700     0.245890    Uiso  ? N
   N2_2       1.0     0.833305     0.166700     0.245890    Uiso  ? N
   N2_3       1.0     0.833305     0.666700     0.245890    Uiso  ? N
   N3         1.0     0.333305     0.166700     0.377340    Uiso  ? N
   N3_1       1.0     0.333305     0.666700     0.377340    Uiso  ? N
   N3_2       1.0     0.833305     0.166700     0.377340    Uiso  ? N
   N3_3       1.0     0.833305     0.666700     0.377340    Uiso  ? N
   N4         1.0     0.333305     0.166700     0.508240    Uiso  ? N
   N4_1       1.0     0.333305     0.666700     0.508240    Uiso  ? N
   N4_2       1.0     0.833305     0.166700     0.508240    Uiso  ? N
   N4_3       1.0     0.833305     0.666700     0.508240    Uiso  ? N
   C64        1.0     0.329573     0.162921     0.574951    Uiso  ? Li
